$DATA1 SOURCE='HSPICE' VERSION='D-2010.03-SP2 64-BIT'
.TITLE '* =========================================='
 cload            tpdf             tpdr             leak_pow          
                  dyn_pow          temper           alter#            
  1.000e-14        7.189e-10        6.179e-10        1.103e-06        
                   3.532e-06        125.0000        1                 
  2.000e-14        1.076e-09        9.121e-10        1.103e-06        
                   5.402e-06        125.0000        1                 
