Using: /usr/bin/time -p /Lnx_STC/tools/synopsys/hspice_vD-2010.03-SP2/hspice/linux/hspice64  char_nand_x4_05n.cir
 ****** HSPICE -- D-2010.03-SP2 64-BIT (Aug 26 2010) linux ******               
  Copyright (C) 2010 Synopsys, Inc. All Rights Reserved.                        
  Unpublished-rights reserved under US copyright laws.
  This program is protected by law and is subject to the 
  terms and conditions of the license agreement from Synopsys.
  Use of this program is your acceptance to be bound by the 
  license agreement. HSPICE is the trademark of Synopsys, Inc.
  Input File: char_nand_x4_05n.cir                                              
 lic:  
 lic: FLEXlm: v10.8 
 lic: USER:   escmc51              HOSTNAME: fas-rla-13.fas.sfu.ca 
 lic: HOSTID:                      PID:      1134359 
 lic: Using FLEXlm license file: 
 lic: 6053@142.58.21.47 
 lic: Checkout 1 hspice 
 lic: License/Maintenance for hspice will expire on 19-mar-2026/2024.09 
 lic: 1(in_use)/500(total) FLOATING license(s) on SERVER 142.58.21.47 
 lic:   
 Init: read login configuration file: /net/home/escmc51/meta.cfg
  **reading include file=/CMC/setups/ensc450/HSPICE/libraries/pt_st.inc
  **reading include file=/CMC/setups/ensc450/HSPICE/libraries/nt_st.inc
 ****** HSPICE -- D-2010.03-SP2 64-BIT (Aug 26 2010) linux ******               
 ******  
 * ==========================================

  ******  circuit name directory
 circuit number to circuit name directory
   number circuitname                     definition         multiplier
        0 main circuit
        1 xnand.                          nand_x4            1.00 
        2 xnand.xpmos1.                   pt_st              1.00 
        3 xnand.xpmos2.                   pt_st              1.00 
        4 xnand.xnmos1.                   nt_st              1.00 
        5 xnand.xnmos2.                   nt_st              1.00 
  **warning** (char_nand_x4_05n.cir:37) Both nodes of element vgnd are connected together; Line ignored.
  **info** (char_nand_x4_05n.cir:57) DC voltage reset to initial transient source value              in source        0:va                  new dc=  0.0000D+00
 

 

 **warning** the following singular supplies were terminated to 1 meg resistor 
   supply       node1            node2
  vgnds                   0:gnds             defined in subckt 0                     0:0                defined in subckt 0               
  vvdds                   0:vdds             defined in subckt 0                     0:0                defined in subckt 0               
      
 **info** set option symb=1 internally to help for convergence.
 *****************************************************************
 ******  option summary
 ******
 runlvl  = 3         bypass  = 2         
  Opening plot unit= 15
 file=char_nand_x4_05n.pa0                                                     


   *** parameter cload =    2.000E-14 ***

 ******  
 * ==========================================

  ******  transient analysis tnom=  25.000 temp= 125.000 *****
   tpdf=  4.3287E-10  targ=  5.6829E-09   trig=  5.2500E-09
   tpdr=  3.4474E-10  targ=  1.0595E-08   trig=  1.0250E-08
   leak_pow=  1.1026E-06  from=  1.0000E-09     to=  4.0000E-09
   dyn_pow=  6.7366E-06  from=  5.0000E-09     to=  8.0000E-09

          ***** job concluded

   *** parameter cload =    4.000E-14 ***

 ******  
 * ==========================================

  ******  transient analysis tnom=  25.000 temp= 125.000 *****
   tpdf=  6.2922E-10  targ=  5.8792E-09   trig=  5.2500E-09
   tpdr=  4.7087E-10  targ=  1.0721E-08   trig=  1.0250E-08
   leak_pow=  1.1026E-06  from=  1.0000E-09     to=  4.0000E-09
   dyn_pow=  1.0495E-05  from=  5.0000E-09     to=  8.0000E-09

          ***** job concluded

   *** parameter cload =    6.000E-14 ***

 ******  
 * ==========================================

  ******  transient analysis tnom=  25.000 temp= 125.000 *****
   tpdf=  8.2423E-10  targ=  6.0742E-09   trig=  5.2500E-09
   tpdr=  6.0950E-10  targ=  1.0860E-08   trig=  1.0250E-08
   leak_pow=  1.1026E-06  from=  1.0000E-09     to=  4.0000E-09
   dyn_pow=  1.4235E-05  from=  5.0000E-09     to=  8.0000E-09

          ***** job concluded

   *** parameter cload =    8.000E-14 ***

 ******  
 * ==========================================

  ******  transient analysis tnom=  25.000 temp= 125.000 *****
   tpdf=  1.0209E-09  targ=  6.2709E-09   trig=  5.2500E-09
   tpdr=  7.3100E-10  targ=  1.0981E-08   trig=  1.0250E-08
   leak_pow=  1.1026E-06  from=  1.0000E-09     to=  4.0000E-09
   dyn_pow=  1.7978E-05  from=  5.0000E-09     to=  8.0000E-09

   meas_variable = tpdf
   mean  = 726.7935p  varian = 6.396e-20
   sigma = 252.9014p  avgdev = 195.7474p
   max   =   1.0209n  min    = 432.8678p
    1-sigma = 252.9014p median = 726.7259p

   meas_variable = tpdr
   mean  = 539.0306p  varian = 2.807e-20
   sigma = 167.5456p  avgdev = 131.2238p
   max   = 731.0048p  min    = 344.7410p
    1-sigma = 167.5456p median = 540.1884p

   meas_variable = leak_pow
   mean  =   1.1026u  varian =   0.     
   sigma =   0.       avgdev =   0.     
   max   =   1.1026u  min    =   1.1026u
    1-sigma =   0.      median =   1.1026u

   meas_variable = dyn_pow
   mean  =  12.3609u  varian =  23.3919p
   sigma =   4.8365u  avgdev =   3.7453u
   max   =  17.9777u  min    =   6.7366u
    1-sigma =   4.8365u median =  12.3647u
 

          ***** job concluded
 ****** HSPICE -- D-2010.03-SP2 64-BIT (Aug 26 2010) linux ******               
 ******  
 * ==========================================

  ******  job statistics summary tnom=  25.000 temp= 125.000 *****
 
 
 ******  Machine Information  ******
 CPU:
 model name	: 13th Gen Intel(R) Core(TM) i5-13500T
 cpu MHz	: 837.946
 
 OS:
 Linux version 4.18.0-553.94.1.el8_10.x86_64 (mockbuild@x64-builder02.almalinux.
 org) (gcc version 8.5.0 20210514 (Red Hat 8.5.0-28) (GCC)) #1 SMP Mon Jan 19 05
 :45:41 EST 2026


  ******  HSPICE Threads Information  ******

  Command Line Threads Count                  :     1
  Available CPU Count                         :    20
  Actual Model Evaluation(Load) Threads Count :     1
  Actual Solver Threads Count                 :     1


  ******  Circuit Statistics  ******
  # nodes       =      16 # elements   =      12
  # resistors   =       2 # capacitors =       1 # inductors   =       0
  # mutual_inds =       0 # vccs       =       0 # vcvs        =       0
  # cccs        =       0 # ccvs       =       0 # volt_srcs   =       5
  # curr_srcs   =       0 # diodes     =       0 # bjts        =       0
  # jfets       =       0 # mosfets    =       4 # U elements  =       0
  # T elements  =       0 # W elements =       0 # B elements  =       0
  # S elements  =       0 # P elements =       0 # va device   =       0


  ******  Runtime Statistics (seconds)  ******

  analysis           time    # points   tot. iter  conv.iter
  op point           0.00           1          80
  transient          0.00        8004         836         371 rev=        22
  readin             0.01
  errchk             0.00
  setup              0.00
  output             0.00


           total memory used                205 kbytes
           total cpu time            0.01 seconds
           total elapsed time        1.46 seconds
           job started at     16:46:23 03/01/2026
           job ended   at     16:46:24 03/01/2026


>info:         ***** hspice job concluded
 lic: Release hspice token(s) 
real 1.53
user 0.01
sys 0.00
