$DATA1 SOURCE='HSPICE' VERSION='D-2010.03-SP2 64-BIT'
.TITLE '* =========================================='
 cload            tpdf             tpdr             leak_pow          
                  dyn_pow          temper           alter#            
  1.000e-14        3.791e-10        9.103e-10        1.103e-06        
                   3.624e-06        125.0000        1                 
  2.000e-14        5.564e-10        1.524e-09        1.103e-06        
                   5.460e-06        125.0000        1                 
