Using: /usr/bin/time -p /Lnx_STC/tools/synopsys/hspice_vD-2010.03-SP2/hspice/linux/hspice64  char_inv_x1.cir
 ****** HSPICE -- D-2010.03-SP2 64-BIT (Aug 26 2010) linux ******               
  Copyright (C) 2010 Synopsys, Inc. All Rights Reserved.                        
  Unpublished-rights reserved under US copyright laws.
  This program is protected by law and is subject to the 
  terms and conditions of the license agreement from Synopsys.
  Use of this program is your acceptance to be bound by the 
  license agreement. HSPICE is the trademark of Synopsys, Inc.
  Input File: char_inv_x1.cir                                                   
 lic:  
 lic: FLEXlm: v10.8 
 lic: USER:   escmc51              HOSTNAME: fas-rla-13.fas.sfu.ca 
 lic: HOSTID:                      PID:      1122190 
 lic: Using FLEXlm license file: 
 lic: 6053@142.58.21.47 
 lic: Checkout 1 hspice 
 lic: License/Maintenance for hspice will expire on 19-mar-2026/2024.09 
 lic: 1(in_use)/500(total) FLOATING license(s) on SERVER 142.58.21.47 
 lic:   
 Init: read login configuration file: /net/home/escmc51/meta.cfg
  **reading include file=/CMC/setups/ensc450/HSPICE/libraries/pt_st.inc
  **reading include file=/CMC/setups/ensc450/HSPICE/libraries/nt_st.inc
 ****** HSPICE -- D-2010.03-SP2 64-BIT (Aug 26 2010) linux ******               
 ******  
 * ==========================================

  ******  circuit name directory
 circuit number to circuit name directory
   number circuitname                     definition         multiplier
        0 main circuit
        1 xinv.                           inv_x1             1.00 
        2 xinv.xpmos.                     pt_st              1.00 
        3 xinv.xnmos.                     nt_st              1.00 
  **warning** (char_inv_x1.cir:43) Both nodes of element vgnd are connected together; Line ignored.
  **info** (char_inv_x1.cir:57) DC voltage reset to initial transient source value              in source        0:va                  new dc=  0.0000D+00
 

 

 **warning** the following singular supplies were terminated to 1 meg resistor 
   supply       node1            node2
  vgnds                   0:gnds             defined in subckt 0                     0:0                defined in subckt 0               
  vvdds                   0:vdds             defined in subckt 0                     0:0                defined in subckt 0               
      
 **info** set option symb=1 internally to help for convergence.
 *****************************************************************
 ******  option summary
 ******
 runlvl  = 3         bypass  = 2         
  Opening plot unit= 15
 file=char_inv_x1.pa0                                                          

 ****** HSPICE -- D-2010.03-SP2 64-BIT (Aug 26 2010) linux ******               
 ******  
 * ==========================================

  ******  operating point information tnom=  25.000 temp= 125.000 *****
 ***** operating point status is voltage   simulation time is     0.     
    node    =voltage      node    =voltage      node    =voltage

 +0:a       =   0.      0:gnds    =   0.      0:vdd     =   1.0500 
 +0:vdds    =   1.0500  0:z       =   1.0500 

 ******  
 * ==========================================

  ******  transient analysis tnom=  25.000 temp= 125.000 *****
   tpdf=  3.4748E-10  targ=  5.5975E-09   trig=  5.2500E-09
   leak_pow=  1.1025E-06  from=  1.0000E-09     to=  4.0000E-09
   dyn_pow=  4.3108E-06  from=  5.0000E-09     to=  7.0000E-09

          ***** job concluded
 ****** HSPICE -- D-2010.03-SP2 64-BIT (Aug 26 2010) linux ******               
 ******  
 * ==========================================

  ******  job statistics summary tnom=  25.000 temp= 125.000 *****
 
 
 ******  Machine Information  ******
 CPU:
 model name	: 13th Gen Intel(R) Core(TM) i5-13500T
 cpu MHz	: 1600.000
 
 OS:
 Linux version 4.18.0-553.94.1.el8_10.x86_64 (mockbuild@x64-builder02.almalinux.
 org) (gcc version 8.5.0 20210514 (Red Hat 8.5.0-28) (GCC)) #1 SMP Mon Jan 19 05
 :45:41 EST 2026


  ******  HSPICE Threads Information  ******

  Command Line Threads Count                  :     1
  Available CPU Count                         :    20
  Actual Model Evaluation(Load) Threads Count :     1
  Actual Solver Threads Count                 :     1


  ******  Circuit Statistics  ******
  # nodes       =      10 # elements   =       9
  # resistors   =       2 # capacitors =       1 # inductors   =       0
  # mutual_inds =       0 # vccs       =       0 # vcvs        =       0
  # cccs        =       0 # ccvs       =       0 # volt_srcs   =       4
  # curr_srcs   =       0 # diodes     =       0 # bjts        =       0
  # jfets       =       0 # mosfets    =       2 # U elements  =       0
  # T elements  =       0 # W elements =       0 # B elements  =       0
  # S elements  =       0 # P elements =       0 # va device   =       0


  ******  Runtime Statistics (seconds)  ******

  analysis           time    # points   tot. iter  conv.iter
  op point           0.00           1           4
  transient          0.00        2001         120          56 rev=         4
  readin             0.01
  errchk             0.00
  setup              0.00
  output             0.00


           total memory used                197 kbytes
           total cpu time            0.01 seconds
           total elapsed time        1.59 seconds
           job started at     15:08:48 03/01/2026
           job ended   at     15:08:50 03/01/2026


>info:         ***** hspice job concluded
 lic: Release hspice token(s) 
real 1.66
user 0.01
sys 0.00
