Using: /usr/bin/time -p /Lnx_STC/tools/synopsys/hspice_vD-2010.03-SP2/hspice/linux/hspice64  char_nand_x4_1n.cir
 ****** HSPICE -- D-2010.03-SP2 64-BIT (Aug 26 2010) linux ******               
  Copyright (C) 2010 Synopsys, Inc. All Rights Reserved.                        
  Unpublished-rights reserved under US copyright laws.
  This program is protected by law and is subject to the 
  terms and conditions of the license agreement from Synopsys.
  Use of this program is your acceptance to be bound by the 
  license agreement. HSPICE is the trademark of Synopsys, Inc.
  Input File: char_nand_x4_1n.cir                                               
 lic:  
 lic: FLEXlm: v10.8 
 lic: USER:   escmc51              HOSTNAME: fas-rla-13.fas.sfu.ca 
 lic: HOSTID:                      PID:      1135700 
 lic: Using FLEXlm license file: 
 lic: 6053@142.58.21.47 
 lic: Checkout 1 hspice 
 lic: License/Maintenance for hspice will expire on 19-mar-2026/2024.09 
 lic: 1(in_use)/500(total) FLOATING license(s) on SERVER 142.58.21.47 
 lic:   
 Init: read login configuration file: /net/home/escmc51/meta.cfg
  **reading include file=/CMC/setups/ensc450/HSPICE/libraries/pt_st.inc
  **reading include file=/CMC/setups/ensc450/HSPICE/libraries/nt_st.inc
 ****** HSPICE -- D-2010.03-SP2 64-BIT (Aug 26 2010) linux ******               
 ******  
 * ==========================================

  ******  circuit name directory
 circuit number to circuit name directory
   number circuitname                     definition         multiplier
        0 main circuit
        1 xnand.                          nand_x4            1.00 
        2 xnand.xpmos1.                   pt_st              1.00 
        3 xnand.xpmos2.                   pt_st              1.00 
        4 xnand.xnmos1.                   nt_st              1.00 
        5 xnand.xnmos2.                   nt_st              1.00 
  **warning** (char_nand_x4_1n.cir:37) Both nodes of element vgnd are connected together; Line ignored.
  **info** (char_nand_x4_1n.cir:55) DC voltage reset to initial transient source value              in source        0:va                  new dc=  0.0000D+00
 

 

 **warning** the following singular supplies were terminated to 1 meg resistor 
   supply       node1            node2
  vgnds                   0:gnds             defined in subckt 0                     0:0                defined in subckt 0               
  vvdds                   0:vdds             defined in subckt 0                     0:0                defined in subckt 0               
      
 **info** set option symb=1 internally to help for convergence.
 *****************************************************************
 ******  option summary
 ******
 runlvl  = 3         bypass  = 2         
  Opening plot unit= 15
 file=char_nand_x4_1n.pa0                                                      


   *** parameter cload =    2.000E-14 ***

 ******  
 * ==========================================

  ******  transient analysis tnom=  25.000 temp= 125.000 *****
   tpdf=  5.5393E-10  targ=  6.0539E-09   trig=  5.5000E-09
   tpdr=  4.8524E-10  targ=  1.0985E-08   trig=  1.0500E-08
   leak_pow=  1.1026E-06  from=  1.0000E-09     to=  4.0000E-09
   dyn_pow=  6.6395E-06  from=  5.0000E-09     to=  8.0000E-09

          ***** job concluded

   *** parameter cload =    4.000E-14 ***

 ******  
 * ==========================================

  ******  transient analysis tnom=  25.000 temp= 125.000 *****
   tpdf=  7.4928E-10  targ=  6.2493E-09   trig=  5.5000E-09
   tpdr=  6.1308E-10  targ=  1.1113E-08   trig=  1.0500E-08
   leak_pow=  1.1026E-06  from=  1.0000E-09     to=  4.0000E-09
   dyn_pow=  1.0400E-05  from=  5.0000E-09     to=  8.0000E-09

          ***** job concluded

   *** parameter cload =    6.000E-14 ***

 ******  
 * ==========================================

  ******  transient analysis tnom=  25.000 temp= 125.000 *****
   tpdf=  9.4608E-10  targ=  6.4461E-09   trig=  5.5000E-09
   tpdr=  7.4822E-10  targ=  1.1248E-08   trig=  1.0500E-08
   leak_pow=  1.1026E-06  from=  1.0000E-09     to=  4.0000E-09
   dyn_pow=  1.4173E-05  from=  5.0000E-09     to=  8.0000E-09

          ***** job concluded

   *** parameter cload =    8.000E-14 ***

 ******  
 * ==========================================

  ******  transient analysis tnom=  25.000 temp= 125.000 *****
   tpdf=  1.1429E-09  targ=  6.6429E-09   trig=  5.5000E-09
   tpdr=  8.4321E-10  targ=  1.1343E-08   trig=  1.0500E-08
   leak_pow=  1.1026E-06  from=  1.0000E-09     to=  4.0000E-09
   dyn_pow=  1.7910E-05  from=  5.0000E-09     to=  8.0000E-09

   meas_variable = tpdf
   mean  = 848.0478p  varian = 6.427e-20
   sigma = 253.5104p  avgdev = 196.4402p
   max   =   1.1429n  min    = 553.9345p
    1-sigma = 253.5104p median = 847.6815p

   meas_variable = tpdr
   mean  = 672.4378p  varian = 2.449e-20
   sigma = 156.4968p  avgdev = 123.2793p
   max   = 843.2120p  min    = 485.2403p
    1-sigma = 156.4968p median = 680.6495p

   meas_variable = leak_pow
   mean  =   1.1026u  varian =   0.     
   sigma =   0.       avgdev =   0.     
   max   =   1.1026u  min    =   1.1026u
    1-sigma =   0.      median =   1.1026u

   meas_variable = dyn_pow
   mean  =  12.2806u  varian =  23.5428p
   sigma =   4.8521u  avgdev =   3.7608u
   max   =  17.9101u  min    =   6.6395u
    1-sigma =   4.8521u median =  12.2863u
 

          ***** job concluded
 ****** HSPICE -- D-2010.03-SP2 64-BIT (Aug 26 2010) linux ******               
 ******  
 * ==========================================

  ******  job statistics summary tnom=  25.000 temp= 125.000 *****
 
 
 ******  Machine Information  ******
 CPU:
 model name	: 13th Gen Intel(R) Core(TM) i5-13500T
 cpu MHz	: 1600.000
 
 OS:
 Linux version 4.18.0-553.94.1.el8_10.x86_64 (mockbuild@x64-builder02.almalinux.
 org) (gcc version 8.5.0 20210514 (Red Hat 8.5.0-28) (GCC)) #1 SMP Mon Jan 19 05
 :45:41 EST 2026


  ******  HSPICE Threads Information  ******

  Command Line Threads Count                  :     1
  Available CPU Count                         :    20
  Actual Model Evaluation(Load) Threads Count :     1
  Actual Solver Threads Count                 :     1


  ******  Circuit Statistics  ******
  # nodes       =      16 # elements   =      12
  # resistors   =       2 # capacitors =       1 # inductors   =       0
  # mutual_inds =       0 # vccs       =       0 # vcvs        =       0
  # cccs        =       0 # ccvs       =       0 # volt_srcs   =       5
  # curr_srcs   =       0 # diodes     =       0 # bjts        =       0
  # jfets       =       0 # mosfets    =       4 # U elements  =       0
  # T elements  =       0 # W elements =       0 # B elements  =       0
  # S elements  =       0 # P elements =       0 # va device   =       0


  ******  Runtime Statistics (seconds)  ******

  analysis           time    # points   tot. iter  conv.iter
  op point           0.00           1          80
  transient          0.00        8004         837         365 rev=        22
  readin             0.01
  errchk             0.00
  setup              0.00
  output             0.00


           total memory used                205 kbytes
           total cpu time            0.01 seconds
           total elapsed time        1.45 seconds
           job started at     16:47:43 03/01/2026
           job ended   at     16:47:45 03/01/2026


>info:         ***** hspice job concluded
 lic: Release hspice token(s) 
real 1.53
user 0.01
sys 0.01
