$DATA1 SOURCE='HSPICE' VERSION='D-2010.03-SP2 64-BIT'
.TITLE '* =========================================='
 cload            tpdf             tpdr             leak_pow          
                  dyn_pow          temper           alter#            
  1.000e-14        5.239e-10        1.014e-09        1.103e-06        
                   3.591e-06        125.0000        1                 
  2.000e-14        6.983e-10        1.627e-09        1.103e-06        
                   5.412e-06        125.0000        1                 
