Using: /usr/bin/time -p /Lnx_STC/tools/synopsys/hspice_vD-2010.03-SP2/hspice/linux/hspice64  char_inv_x4_05n.cir
 ****** HSPICE -- D-2010.03-SP2 64-BIT (Aug 26 2010) linux ******               
  Copyright (C) 2010 Synopsys, Inc. All Rights Reserved.                        
  Unpublished-rights reserved under US copyright laws.
  This program is protected by law and is subject to the 
  terms and conditions of the license agreement from Synopsys.
  Use of this program is your acceptance to be bound by the 
  license agreement. HSPICE is the trademark of Synopsys, Inc.
  Input File: char_inv_x4_05n.cir                                               
 lic:  
 lic: FLEXlm: v10.8 
 lic: USER:   escmc51              HOSTNAME: fas-rla-13.fas.sfu.ca 
 lic: HOSTID:                      PID:      1132895 
 lic: Using FLEXlm license file: 
 lic: 6053@142.58.21.47 
 lic: Checkout 1 hspice 
 lic: License/Maintenance for hspice will expire on 19-mar-2026/2024.09 
 lic: 1(in_use)/500(total) FLOATING license(s) on SERVER 142.58.21.47 
 lic:   
 Init: read login configuration file: /net/home/escmc51/meta.cfg
  **reading include file=/CMC/setups/ensc450/HSPICE/libraries/pt_st.inc
  **reading include file=/CMC/setups/ensc450/HSPICE/libraries/nt_st.inc
 ****** HSPICE -- D-2010.03-SP2 64-BIT (Aug 26 2010) linux ******               
 ******  
 * ==========================================

  ******  circuit name directory
 circuit number to circuit name directory
   number circuitname                     definition         multiplier
        0 main circuit
        1 xinv.                           inv_x4             1.00 
        2 xinv.xpmos.                     pt_st              1.00 
        3 xinv.xnmos.                     nt_st              1.00 
  **warning** (char_inv_x4_05n.cir:37) Both nodes of element vgnd are connected together; Line ignored.
  **info** (char_inv_x4_05n.cir:51) DC voltage reset to initial transient source value              in source        0:va                  new dc=  0.0000D+00
 

 

 **warning** the following singular supplies were terminated to 1 meg resistor 
   supply       node1            node2
  vgnds                   0:gnds             defined in subckt 0                     0:0                defined in subckt 0               
  vvdds                   0:vdds             defined in subckt 0                     0:0                defined in subckt 0               
      
 **info** set option symb=1 internally to help for convergence.
 *****************************************************************
 ******  option summary
 ******
 runlvl  = 3         bypass  = 2         
  Opening plot unit= 15
 file=char_inv_x4_05n.pa0                                                      


   *** parameter cload =    2.000E-14 ***

 ******  
 * ==========================================

  ******  transient analysis tnom=  25.000 temp= 125.000 *****
   tpdf=  2.7149E-10  targ=  5.5215E-09   trig=  5.2500E-09
   tpdr=  3.0938E-10  targ=  1.0559E-08   trig=  1.0250E-08
   leak_pow=  1.1026E-06  from=  1.0000E-09     to=  4.0000E-09
   dyn_pow=  5.7284E-06  from=  5.0000E-09     to=  8.0000E-09

          ***** job concluded

   *** parameter cload =    4.000E-14 ***

 ******  
 * ==========================================

  ******  transient analysis tnom=  25.000 temp= 125.000 *****
   tpdf=  3.5908E-10  targ=  5.6091E-09   trig=  5.2500E-09
   tpdr=  4.3198E-10  targ=  1.0682E-08   trig=  1.0250E-08
   leak_pow=  1.1026E-06  from=  1.0000E-09     to=  4.0000E-09
   dyn_pow=  9.2813E-06  from=  5.0000E-09     to=  8.0000E-09

          ***** job concluded

   *** parameter cload =    6.000E-14 ***

 ******  
 * ==========================================

  ******  transient analysis tnom=  25.000 temp= 125.000 *****
   tpdf=  4.7031E-10  targ=  5.7203E-09   trig=  5.2500E-09
   tpdr=  5.6290E-10  targ=  1.0813E-08   trig=  1.0250E-08
   leak_pow=  1.1026E-06  from=  1.0000E-09     to=  4.0000E-09
   dyn_pow=  1.3205E-05  from=  5.0000E-09     to=  8.0000E-09

          ***** job concluded

   *** parameter cload =    8.000E-14 ***

 ******  
 * ==========================================

  ******  transient analysis tnom=  25.000 temp= 125.000 *****
   tpdf=  5.6869E-10  targ=  5.8187E-09   trig=  5.2500E-09
   tpdr=  6.9401E-10  targ=  1.0944E-08   trig=  1.0250E-08
   leak_pow=  1.1026E-06  from=  1.0000E-09     to=  4.0000E-09
   dyn_pow=  1.6932E-05  from=  5.0000E-09     to=  8.0000E-09

   meas_variable = tpdf
   mean  = 417.3911p  varian = 1.679e-20
   sigma = 129.5891p  avgdev = 102.1082p
   max   = 568.6909p  min    = 271.4876p
    1-sigma = 129.5891p median = 414.6931p

   meas_variable = tpdr
   mean  = 499.5661p  varian = 2.752e-20
   sigma = 165.8883p  avgdev = 128.8868p
   max   = 694.0074p  min    = 309.3819p
    1-sigma = 165.8883p median = 497.4375p

   meas_variable = leak_pow
   mean  =   1.1026u  varian =   0.     
   sigma =   0.       avgdev =   0.     
   max   =   1.1026u  min    =   1.1026u
    1-sigma =   0.      median =   1.1026u

   meas_variable = dyn_pow
   mean  =  11.2868u  varian =  23.4895p
   sigma =   4.8466u  avgdev =   3.7819u
   max   =  16.9323u  min    =   5.7284u
    1-sigma =   4.8466u median =  11.2431u
 

          ***** job concluded
 ****** HSPICE -- D-2010.03-SP2 64-BIT (Aug 26 2010) linux ******               
 ******  
 * ==========================================

  ******  job statistics summary tnom=  25.000 temp= 125.000 *****
 
 
 ******  Machine Information  ******
 CPU:
 model name	: 13th Gen Intel(R) Core(TM) i5-13500T
 cpu MHz	: 1600.000
 
 OS:
 Linux version 4.18.0-553.94.1.el8_10.x86_64 (mockbuild@x64-builder02.almalinux.
 org) (gcc version 8.5.0 20210514 (Red Hat 8.5.0-28) (GCC)) #1 SMP Mon Jan 19 05
 :45:41 EST 2026


  ******  HSPICE Threads Information  ******

  Command Line Threads Count                  :     1
  Available CPU Count                         :    20
  Actual Model Evaluation(Load) Threads Count :     1
  Actual Solver Threads Count                 :     1


  ******  Circuit Statistics  ******
  # nodes       =      10 # elements   =       9
  # resistors   =       2 # capacitors =       1 # inductors   =       0
  # mutual_inds =       0 # vccs       =       0 # vcvs        =       0
  # cccs        =       0 # ccvs       =       0 # volt_srcs   =       4
  # curr_srcs   =       0 # diodes     =       0 # bjts        =       0
  # jfets       =       0 # mosfets    =       2 # U elements  =       0
  # T elements  =       0 # W elements =       0 # B elements  =       0
  # S elements  =       0 # P elements =       0 # va device   =       0


  ******  Runtime Statistics (seconds)  ******

  analysis           time    # points   tot. iter  conv.iter
  op point           0.00           1          16
  transient          0.00        8004         700         321 rev=        23
  readin             0.01
  errchk             0.00
  setup              0.00
  output             0.00


           total memory used                199 kbytes
           total cpu time            0.01 seconds
           total elapsed time        1.66 seconds
           job started at     16:32:57 03/01/2026
           job ended   at     16:32:58 03/01/2026


>info:         ***** hspice job concluded
 lic: Release hspice token(s) 
real 1.97
user 0.01
sys 0.02
