$DATA1 SOURCE='HSPICE' VERSION='D-2010.03-SP2 64-BIT'
.TITLE '* =========================================='
 cload            tpdf             tpdr             leak_pow          
                  dyn_pow          temper           alter#            
  1.000e-14        6.001e-10        5.030e-10        1.103e-06        
                   3.549e-06        125.0000        1                 
  2.000e-14        9.557e-10        7.799e-10        1.103e-06        
                   5.413e-06        125.0000        1                 
