$DATA1 SOURCE='HSPICE' VERSION='D-2010.03-SP2 64-BIT'
.TITLE '* =========================================='
 cload            tpdf             leak_pow         dyn_pow           
                  temper           alter#            
  1.000e-14        3.475e-10        1.103e-06        3.242e-06        
                   125.0000        1                 
  2.000e-14        5.129e-10        1.103e-06        5.025e-06        
                   125.0000        1                 
